
---------- Begin Simulation Statistics ----------
simSeconds                                   0.005091                       # Number of seconds simulated (Second)
simTicks                                   5091118500                       # Number of ticks simulated (Tick)
finalTick                                  5091118500                       # Number of ticks from beginning of simulation (restored from checkpoints and never reset) (Tick)
simFreq                                  1000000000000                       # The number of ticks per simulated second ((Tick/Second))
hostSeconds                                     34.68                       # Real time elapsed on the host (Second)
hostTickRate                                146790141                       # The number of ticks simulated per host second (ticks/s) ((Tick/Second))
hostMemory                                    5110840                       # Number of bytes of host memory used (Byte)
simInsts                                      6512135                       # Number of instructions simulated (Count)
simOps                                       11395394                       # Number of ops (including micro ops) simulated (Count)
hostInstRate                                   187761                       # Simulator instruction rate (inst/s) ((Count/Second))
hostOpRate                                     328558                       # Simulator op (including micro ops) rate (op/s) ((Count/Second))
system.clk_domain.clock                          1000                       # Clock period in ticks (Tick)
system.cpu0.numCycles                        10182237                       # Number of cpu cycles simulated (Cycle)
system.cpu0.cpi                              4.504538                       # CPI: cycles per instruction (core level) ((Cycle/Count))
system.cpu0.ipc                              0.221998                       # IPC: instructions per cycle (core level) ((Count/Cycle))
system.cpu0.numWorkItemsStarted                     0                       # Number of work items this cpu started (Count)
system.cpu0.numWorkItemsCompleted                   0                       # Number of work items this cpu completed (Count)
system.cpu0.commitStats0.numInsts             2260440                       # Number of instructions committed (thread level) (Count)
system.cpu0.commitStats0.numOps               3975063                       # Number of ops (including micro ops) committed (thread level) (Count)
system.cpu0.commitStats0.numInstsNotNOP             0                       # Number of instructions committed excluding NOPs or prefetches (Count)
system.cpu0.commitStats0.numOpsNotNOP               0                       # Number of Ops (including micro ops) Simulated (Count)
system.cpu0.commitStats0.cpi                 4.504538                       # CPI: cycles per instruction (thread level) ((Cycle/Count))
system.cpu0.commitStats0.ipc                 0.221998                       # IPC: instructions per cycle (thread level) ((Count/Cycle))
system.cpu0.commitStats0.numMemRefs                 0                       # Number of memory references committed (Count)
system.cpu0.commitStats0.numFpInsts             88433                       # Number of float instructions (Count)
system.cpu0.commitStats0.numIntInsts          3908449                       # Number of integer instructions (Count)
system.cpu0.commitStats0.numLoadInsts          552744                       # Number of load instructions (Count)
system.cpu0.commitStats0.numStoreInsts         202506                       # Number of store instructions (Count)
system.cpu0.commitStats0.numVecInsts                0                       # Number of vector instructions (Count)
system.cpu0.commitStats0.committedInstType::No_OpClass        10811      0.27%      0.27% # Class of committed instruction. (Count)
system.cpu0.commitStats0.committedInstType::IntAlu      3119135     78.47%     78.74% # Class of committed instruction. (Count)
system.cpu0.commitStats0.committedInstType::IntMult          332      0.01%     78.75% # Class of committed instruction. (Count)
system.cpu0.commitStats0.committedInstType::IntDiv        38685      0.97%     79.72% # Class of committed instruction. (Count)
system.cpu0.commitStats0.committedInstType::FloatAdd         3327      0.08%     79.80% # Class of committed instruction. (Count)
system.cpu0.commitStats0.committedInstType::FloatCmp            0      0.00%     79.80% # Class of committed instruction. (Count)
system.cpu0.commitStats0.committedInstType::FloatCvt         1680      0.04%     79.85% # Class of committed instruction. (Count)
system.cpu0.commitStats0.committedInstType::FloatMult            0      0.00%     79.85% # Class of committed instruction. (Count)
system.cpu0.commitStats0.committedInstType::FloatMultAcc            0      0.00%     79.85% # Class of committed instruction. (Count)
system.cpu0.commitStats0.committedInstType::FloatDiv            0      0.00%     79.85% # Class of committed instruction. (Count)
system.cpu0.commitStats0.committedInstType::FloatMisc            0      0.00%     79.85% # Class of committed instruction. (Count)
system.cpu0.commitStats0.committedInstType::FloatSqrt            0      0.00%     79.85% # Class of committed instruction. (Count)
system.cpu0.commitStats0.committedInstType::SimdAdd         7310      0.18%     80.03% # Class of committed instruction. (Count)
system.cpu0.commitStats0.committedInstType::SimdAddAcc            0      0.00%     80.03% # Class of committed instruction. (Count)
system.cpu0.commitStats0.committedInstType::SimdAlu        13597      0.34%     80.37% # Class of committed instruction. (Count)
system.cpu0.commitStats0.committedInstType::SimdCmp            6      0.00%     80.37% # Class of committed instruction. (Count)
system.cpu0.commitStats0.committedInstType::SimdCvt        14532      0.37%     80.74% # Class of committed instruction. (Count)
system.cpu0.commitStats0.committedInstType::SimdMisc         7949      0.20%     80.94% # Class of committed instruction. (Count)
system.cpu0.commitStats0.committedInstType::SimdMult            0      0.00%     80.94% # Class of committed instruction. (Count)
system.cpu0.commitStats0.committedInstType::SimdMultAcc            0      0.00%     80.94% # Class of committed instruction. (Count)
system.cpu0.commitStats0.committedInstType::SimdMatMultAcc            0      0.00%     80.94% # Class of committed instruction. (Count)
system.cpu0.commitStats0.committedInstType::SimdShift         2449      0.06%     81.00% # Class of committed instruction. (Count)
system.cpu0.commitStats0.committedInstType::SimdShiftAcc            0      0.00%     81.00% # Class of committed instruction. (Count)
system.cpu0.commitStats0.committedInstType::SimdDiv            0      0.00%     81.00% # Class of committed instruction. (Count)
system.cpu0.commitStats0.committedInstType::SimdSqrt            0      0.00%     81.00% # Class of committed instruction. (Count)
system.cpu0.commitStats0.committedInstType::SimdFloatAdd            0      0.00%     81.00% # Class of committed instruction. (Count)
system.cpu0.commitStats0.committedInstType::SimdFloatAlu            0      0.00%     81.00% # Class of committed instruction. (Count)
system.cpu0.commitStats0.committedInstType::SimdFloatCmp            0      0.00%     81.00% # Class of committed instruction. (Count)
system.cpu0.commitStats0.committedInstType::SimdFloatCvt            0      0.00%     81.00% # Class of committed instruction. (Count)
system.cpu0.commitStats0.committedInstType::SimdFloatDiv            0      0.00%     81.00% # Class of committed instruction. (Count)
system.cpu0.commitStats0.committedInstType::SimdFloatMisc            0      0.00%     81.00% # Class of committed instruction. (Count)
system.cpu0.commitStats0.committedInstType::SimdFloatMult            0      0.00%     81.00% # Class of committed instruction. (Count)
system.cpu0.commitStats0.committedInstType::SimdFloatMultAcc            0      0.00%     81.00% # Class of committed instruction. (Count)
system.cpu0.commitStats0.committedInstType::SimdFloatMatMultAcc            0      0.00%     81.00% # Class of committed instruction. (Count)
system.cpu0.commitStats0.committedInstType::SimdFloatSqrt            0      0.00%     81.00% # Class of committed instruction. (Count)
system.cpu0.commitStats0.committedInstType::SimdReduceAdd            0      0.00%     81.00% # Class of committed instruction. (Count)
system.cpu0.commitStats0.committedInstType::SimdReduceAlu            0      0.00%     81.00% # Class of committed instruction. (Count)
system.cpu0.commitStats0.committedInstType::SimdReduceCmp            0      0.00%     81.00% # Class of committed instruction. (Count)
system.cpu0.commitStats0.committedInstType::SimdFloatReduceAdd            0      0.00%     81.00% # Class of committed instruction. (Count)
system.cpu0.commitStats0.committedInstType::SimdFloatReduceCmp            0      0.00%     81.00% # Class of committed instruction. (Count)
system.cpu0.commitStats0.committedInstType::SimdAes            0      0.00%     81.00% # Class of committed instruction. (Count)
system.cpu0.commitStats0.committedInstType::SimdAesMix            0      0.00%     81.00% # Class of committed instruction. (Count)
system.cpu0.commitStats0.committedInstType::SimdSha1Hash            0      0.00%     81.00% # Class of committed instruction. (Count)
system.cpu0.commitStats0.committedInstType::SimdSha1Hash2            0      0.00%     81.00% # Class of committed instruction. (Count)
system.cpu0.commitStats0.committedInstType::SimdSha256Hash            0      0.00%     81.00% # Class of committed instruction. (Count)
system.cpu0.commitStats0.committedInstType::SimdSha256Hash2            0      0.00%     81.00% # Class of committed instruction. (Count)
system.cpu0.commitStats0.committedInstType::SimdShaSigma2            0      0.00%     81.00% # Class of committed instruction. (Count)
system.cpu0.commitStats0.committedInstType::SimdShaSigma3            0      0.00%     81.00% # Class of committed instruction. (Count)
system.cpu0.commitStats0.committedInstType::SimdPredAlu            0      0.00%     81.00% # Class of committed instruction. (Count)
system.cpu0.commitStats0.committedInstType::Matrix            0      0.00%     81.00% # Class of committed instruction. (Count)
system.cpu0.commitStats0.committedInstType::MatrixMov            0      0.00%     81.00% # Class of committed instruction. (Count)
system.cpu0.commitStats0.committedInstType::MatrixOP            0      0.00%     81.00% # Class of committed instruction. (Count)
system.cpu0.commitStats0.committedInstType::MemRead       529864     13.33%     94.33% # Class of committed instruction. (Count)
system.cpu0.commitStats0.committedInstType::MemWrite       189040      4.76%     99.09% # Class of committed instruction. (Count)
system.cpu0.commitStats0.committedInstType::FloatMemRead        22880      0.58%     99.66% # Class of committed instruction. (Count)
system.cpu0.commitStats0.committedInstType::FloatMemWrite        13466      0.34%    100.00% # Class of committed instruction. (Count)
system.cpu0.commitStats0.committedInstType::IprAccess            0      0.00%    100.00% # Class of committed instruction. (Count)
system.cpu0.commitStats0.committedInstType::InstPrefetch            0      0.00%    100.00% # Class of committed instruction. (Count)
system.cpu0.commitStats0.committedInstType::VectorUnitStrideLoad            0      0.00%    100.00% # Class of committed instruction. (Count)
system.cpu0.commitStats0.committedInstType::VectorUnitStrideStore            0      0.00%    100.00% # Class of committed instruction. (Count)
system.cpu0.commitStats0.committedInstType::VectorUnitStrideMaskLoad            0      0.00%    100.00% # Class of committed instruction. (Count)
system.cpu0.commitStats0.committedInstType::VectorUnitStrideMaskStore            0      0.00%    100.00% # Class of committed instruction. (Count)
system.cpu0.commitStats0.committedInstType::VectorStridedLoad            0      0.00%    100.00% # Class of committed instruction. (Count)
system.cpu0.commitStats0.committedInstType::VectorStridedStore            0      0.00%    100.00% # Class of committed instruction. (Count)
system.cpu0.commitStats0.committedInstType::VectorIndexedLoad            0      0.00%    100.00% # Class of committed instruction. (Count)
system.cpu0.commitStats0.committedInstType::VectorIndexedStore            0      0.00%    100.00% # Class of committed instruction. (Count)
system.cpu0.commitStats0.committedInstType::VectorUnitStrideFaultOnlyFirstLoad            0      0.00%    100.00% # Class of committed instruction. (Count)
system.cpu0.commitStats0.committedInstType::VectorWholeRegisterLoad            0      0.00%    100.00% # Class of committed instruction. (Count)
system.cpu0.commitStats0.committedInstType::VectorWholeRegisterStore            0      0.00%    100.00% # Class of committed instruction. (Count)
system.cpu0.commitStats0.committedInstType::VectorIntegerArith            0      0.00%    100.00% # Class of committed instruction. (Count)
system.cpu0.commitStats0.committedInstType::VectorFloatArith            0      0.00%    100.00% # Class of committed instruction. (Count)
system.cpu0.commitStats0.committedInstType::VectorFloatConvert            0      0.00%    100.00% # Class of committed instruction. (Count)
system.cpu0.commitStats0.committedInstType::VectorIntegerReduce            0      0.00%    100.00% # Class of committed instruction. (Count)
system.cpu0.commitStats0.committedInstType::VectorFloatReduce            0      0.00%    100.00% # Class of committed instruction. (Count)
system.cpu0.commitStats0.committedInstType::VectorMisc            0      0.00%    100.00% # Class of committed instruction. (Count)
system.cpu0.commitStats0.committedInstType::VectorIntegerExtension            0      0.00%    100.00% # Class of committed instruction. (Count)
system.cpu0.commitStats0.committedInstType::VectorConfig            0      0.00%    100.00% # Class of committed instruction. (Count)
system.cpu0.commitStats0.committedInstType::total      3975063                       # Class of committed instruction. (Count)
system.cpu0.commitStats0.committedControl::IsControl       384925                       # Class of control type instructions committed (Count)
system.cpu0.commitStats0.committedControl::IsDirectControl       361405                       # Class of control type instructions committed (Count)
system.cpu0.commitStats0.committedControl::IsIndirectControl        23264                       # Class of control type instructions committed (Count)
system.cpu0.commitStats0.committedControl::IsCondControl       332635                       # Class of control type instructions committed (Count)
system.cpu0.commitStats0.committedControl::IsUncondControl        52034                       # Class of control type instructions committed (Count)
system.cpu0.commitStats0.committedControl::IsCall        14268                       # Class of control type instructions committed (Count)
system.cpu0.commitStats0.committedControl::IsReturn        14264                       # Class of control type instructions committed (Count)
system.cpu0.exec_context.thread_0.numMatAluAccesses            0                       # Number of matrix alu accesses (Count)
system.cpu0.exec_context.thread_0.numCallsReturns        28532                       # Number of times a function call or return occured (Count)
system.cpu0.exec_context.thread_0.numMatInsts            0                       # Number of matrix instructions (Count)
system.cpu0.exec_context.thread_0.numIdleCycles     0.002000                       # Number of idle cycles (Cycle)
system.cpu0.exec_context.thread_0.numBusyCycles 10182236.998000                       # Number of busy cycles (Cycle)
system.cpu0.exec_context.thread_0.notIdleFraction     1.000000                       # Percentage of non-idle cycles (Ratio)
system.cpu0.exec_context.thread_0.idleFraction     0.000000                       # Percentage of idle cycles (Ratio)
system.cpu0.executeStats0.numInsts                  0                       # Number of executed instructions (Count)
system.cpu0.executeStats0.numNop                    0                       # Number of nop insts executed (Count)
system.cpu0.executeStats0.numBranches               0                       # Number of branches executed (Count)
system.cpu0.executeStats0.numLoadInsts              0                       # Number of load instructions executed (Count)
system.cpu0.executeStats0.numStoreInsts        755250                       # Number of stores executed (Count)
system.cpu0.executeStats0.instRate                  0                       # Inst execution rate ((Count/Cycle))
system.cpu0.executeStats0.numFpAluAccesses        88433                       # Number of float alu accesses (Count)
system.cpu0.executeStats0.numFpRegReads        123705                       # Number of times the floating registers were read (Count)
system.cpu0.executeStats0.numFpRegWrites        65781                       # Number of times the floating registers were written (Count)
system.cpu0.executeStats0.numIntAluAccesses      3908449                       # Number of integer alu accesses (Count)
system.cpu0.executeStats0.numIntRegReads      5628960                       # Number of times the integer registers were read (Count)
system.cpu0.executeStats0.numIntRegWrites      3069153                       # Number of times the integer registers were written (Count)
system.cpu0.executeStats0.numMemRefs           755250                       # Number of memory refs (Count)
system.cpu0.executeStats0.numMiscRegReads      1504164                       # Number of times the Misc registers were read (Count)
system.cpu0.executeStats0.numMiscRegWrites          945                       # Number of times the Misc registers were written (Count)
system.cpu0.executeStats0.numVecAluAccesses            0                       # Number of vector alu accesses (Count)
system.cpu0.executeStats0.numDiscardedOps            0                       # Number of ops (including micro ops) which were discarded before commit (Count)
system.cpu0.fetchStats0.numInsts              2260440                       # Number of instructions fetched (thread level) (Count)
system.cpu0.fetchStats0.numOps                3975063                       # Number of ops (including micro ops) fetched (thread level) (Count)
system.cpu0.fetchStats0.fetchRate            0.221998                       # Number of inst fetches per cycle ((Count/Cycle))
system.cpu0.fetchStats0.numBranches            384925                       # Number of branches fetched (Count)
system.cpu0.fetchStats0.branchRate           0.037804                       # Number of branch fetches per cycle (Ratio)
system.cpu0.fetchStats0.numFetchSuspends            0                       # Number of times Execute suspended instruction fetching (Count)
system.cpu0.interrupts.clk_domain.clock          8000                       # Clock period in ticks (Tick)
system.cpu0.mmu.dtb.rdAccesses                 552795                       # TLB accesses on read requests (Count)
system.cpu0.mmu.dtb.wrAccesses                 202519                       # TLB accesses on write requests (Count)
system.cpu0.mmu.dtb.rdMisses                     1451                       # TLB misses on read requests (Count)
system.cpu0.mmu.dtb.wrMisses                      105                       # TLB misses on write requests (Count)
system.cpu0.mmu.dtb.walker.power_state.pwrStateResidencyTicks::UNDEFINED   5091118500                       # Cumulative time (in ticks) in various power states (Tick)
system.cpu0.mmu.itb.rdAccesses                      0                       # TLB accesses on read requests (Count)
system.cpu0.mmu.itb.wrAccesses                3005013                       # TLB accesses on write requests (Count)
system.cpu0.mmu.itb.rdMisses                        0                       # TLB misses on read requests (Count)
system.cpu0.mmu.itb.wrMisses                      513                       # TLB misses on write requests (Count)
system.cpu0.mmu.itb.walker.power_state.pwrStateResidencyTicks::UNDEFINED   5091118500                       # Cumulative time (in ticks) in various power states (Tick)
system.cpu0.power_state.pwrStateResidencyTicks::ON   5091118500                       # Cumulative time (in ticks) in various power states (Tick)
system.cpu0.thread_0.numInsts                       0                       # Number of Instructions committed (Count)
system.cpu0.thread_0.numOps                         0                       # Number of Ops committed (Count)
system.cpu0.thread_0.numMemRefs                     0                       # Number of Memory References (Count)
system.cpu0.workload.numSyscalls                   75                       # Number of system calls (Count)
system.cpu1.numCycles                         9623312                       # Number of cpu cycles simulated (Cycle)
system.cpu1.cpi                              4.521090                       # CPI: cycles per instruction (core level) ((Cycle/Count))
system.cpu1.ipc                              0.221186                       # IPC: instructions per cycle (core level) ((Count/Cycle))
system.cpu1.numWorkItemsStarted                     0                       # Number of work items this cpu started (Count)
system.cpu1.numWorkItemsCompleted                   0                       # Number of work items this cpu completed (Count)
system.cpu1.commitStats0.numInsts             2128538                       # Number of instructions committed (thread level) (Count)
system.cpu1.commitStats0.numOps               3715592                       # Number of ops (including micro ops) committed (thread level) (Count)
system.cpu1.commitStats0.numInstsNotNOP             0                       # Number of instructions committed excluding NOPs or prefetches (Count)
system.cpu1.commitStats0.numOpsNotNOP               0                       # Number of Ops (including micro ops) Simulated (Count)
system.cpu1.commitStats0.cpi                 4.521090                       # CPI: cycles per instruction (thread level) ((Cycle/Count))
system.cpu1.commitStats0.ipc                 0.221186                       # IPC: instructions per cycle (thread level) ((Count/Cycle))
system.cpu1.commitStats0.numMemRefs                 0                       # Number of memory references committed (Count)
system.cpu1.commitStats0.numFpInsts             81273                       # Number of float instructions (Count)
system.cpu1.commitStats0.numIntInsts          3654233                       # Number of integer instructions (Count)
system.cpu1.commitStats0.numLoadInsts          512401                       # Number of load instructions (Count)
system.cpu1.commitStats0.numStoreInsts         183830                       # Number of store instructions (Count)
system.cpu1.commitStats0.numVecInsts                0                       # Number of vector instructions (Count)
system.cpu1.commitStats0.committedInstType::No_OpClass         9939      0.27%      0.27% # Class of committed instruction. (Count)
system.cpu1.commitStats0.committedInstType::IntAlu      2926303     78.76%     79.02% # Class of committed instruction. (Count)
system.cpu1.commitStats0.committedInstType::IntMult          110      0.00%     79.03% # Class of committed instruction. (Count)
system.cpu1.commitStats0.committedInstType::IntDiv        36275      0.98%     80.00% # Class of committed instruction. (Count)
system.cpu1.commitStats0.committedInstType::FloatAdd         3017      0.08%     80.09% # Class of committed instruction. (Count)
system.cpu1.commitStats0.committedInstType::FloatCmp            0      0.00%     80.09% # Class of committed instruction. (Count)
system.cpu1.commitStats0.committedInstType::FloatCvt         1248      0.03%     80.12% # Class of committed instruction. (Count)
system.cpu1.commitStats0.committedInstType::FloatMult            0      0.00%     80.12% # Class of committed instruction. (Count)
system.cpu1.commitStats0.committedInstType::FloatMultAcc            0      0.00%     80.12% # Class of committed instruction. (Count)
system.cpu1.commitStats0.committedInstType::FloatDiv            0      0.00%     80.12% # Class of committed instruction. (Count)
system.cpu1.commitStats0.committedInstType::FloatMisc            0      0.00%     80.12% # Class of committed instruction. (Count)
system.cpu1.commitStats0.committedInstType::FloatSqrt            0      0.00%     80.12% # Class of committed instruction. (Count)
system.cpu1.commitStats0.committedInstType::SimdAdd         6752      0.18%     80.30% # Class of committed instruction. (Count)
system.cpu1.commitStats0.committedInstType::SimdAddAcc            0      0.00%     80.30% # Class of committed instruction. (Count)
system.cpu1.commitStats0.committedInstType::SimdAlu        12598      0.34%     80.64% # Class of committed instruction. (Count)
system.cpu1.commitStats0.committedInstType::SimdCmp            0      0.00%     80.64% # Class of committed instruction. (Count)
system.cpu1.commitStats0.committedInstType::SimdCvt        13602      0.37%     81.01% # Class of committed instruction. (Count)
system.cpu1.commitStats0.committedInstType::SimdMisc         7803      0.21%     81.22% # Class of committed instruction. (Count)
system.cpu1.commitStats0.committedInstType::SimdMult            0      0.00%     81.22% # Class of committed instruction. (Count)
system.cpu1.commitStats0.committedInstType::SimdMultAcc            0      0.00%     81.22% # Class of committed instruction. (Count)
system.cpu1.commitStats0.committedInstType::SimdMatMultAcc            0      0.00%     81.22% # Class of committed instruction. (Count)
system.cpu1.commitStats0.committedInstType::SimdShift         1714      0.05%     81.26% # Class of committed instruction. (Count)
system.cpu1.commitStats0.committedInstType::SimdShiftAcc            0      0.00%     81.26% # Class of committed instruction. (Count)
system.cpu1.commitStats0.committedInstType::SimdDiv            0      0.00%     81.26% # Class of committed instruction. (Count)
system.cpu1.commitStats0.committedInstType::SimdSqrt            0      0.00%     81.26% # Class of committed instruction. (Count)
system.cpu1.commitStats0.committedInstType::SimdFloatAdd            0      0.00%     81.26% # Class of committed instruction. (Count)
system.cpu1.commitStats0.committedInstType::SimdFloatAlu            0      0.00%     81.26% # Class of committed instruction. (Count)
system.cpu1.commitStats0.committedInstType::SimdFloatCmp            0      0.00%     81.26% # Class of committed instruction. (Count)
system.cpu1.commitStats0.committedInstType::SimdFloatCvt            0      0.00%     81.26% # Class of committed instruction. (Count)
system.cpu1.commitStats0.committedInstType::SimdFloatDiv            0      0.00%     81.26% # Class of committed instruction. (Count)
system.cpu1.commitStats0.committedInstType::SimdFloatMisc            0      0.00%     81.26% # Class of committed instruction. (Count)
system.cpu1.commitStats0.committedInstType::SimdFloatMult            0      0.00%     81.26% # Class of committed instruction. (Count)
system.cpu1.commitStats0.committedInstType::SimdFloatMultAcc            0      0.00%     81.26% # Class of committed instruction. (Count)
system.cpu1.commitStats0.committedInstType::SimdFloatMatMultAcc            0      0.00%     81.26% # Class of committed instruction. (Count)
system.cpu1.commitStats0.committedInstType::SimdFloatSqrt            0      0.00%     81.26% # Class of committed instruction. (Count)
system.cpu1.commitStats0.committedInstType::SimdReduceAdd            0      0.00%     81.26% # Class of committed instruction. (Count)
system.cpu1.commitStats0.committedInstType::SimdReduceAlu            0      0.00%     81.26% # Class of committed instruction. (Count)
system.cpu1.commitStats0.committedInstType::SimdReduceCmp            0      0.00%     81.26% # Class of committed instruction. (Count)
system.cpu1.commitStats0.committedInstType::SimdFloatReduceAdd            0      0.00%     81.26% # Class of committed instruction. (Count)
system.cpu1.commitStats0.committedInstType::SimdFloatReduceCmp            0      0.00%     81.26% # Class of committed instruction. (Count)
system.cpu1.commitStats0.committedInstType::SimdAes            0      0.00%     81.26% # Class of committed instruction. (Count)
system.cpu1.commitStats0.committedInstType::SimdAesMix            0      0.00%     81.26% # Class of committed instruction. (Count)
system.cpu1.commitStats0.committedInstType::SimdSha1Hash            0      0.00%     81.26% # Class of committed instruction. (Count)
system.cpu1.commitStats0.committedInstType::SimdSha1Hash2            0      0.00%     81.26% # Class of committed instruction. (Count)
system.cpu1.commitStats0.committedInstType::SimdSha256Hash            0      0.00%     81.26% # Class of committed instruction. (Count)
system.cpu1.commitStats0.committedInstType::SimdSha256Hash2            0      0.00%     81.26% # Class of committed instruction. (Count)
system.cpu1.commitStats0.committedInstType::SimdShaSigma2            0      0.00%     81.26% # Class of committed instruction. (Count)
system.cpu1.commitStats0.committedInstType::SimdShaSigma3            0      0.00%     81.26% # Class of committed instruction. (Count)
system.cpu1.commitStats0.committedInstType::SimdPredAlu            0      0.00%     81.26% # Class of committed instruction. (Count)
system.cpu1.commitStats0.committedInstType::Matrix            0      0.00%     81.26% # Class of committed instruction. (Count)
system.cpu1.commitStats0.committedInstType::MatrixMov            0      0.00%     81.26% # Class of committed instruction. (Count)
system.cpu1.commitStats0.committedInstType::MatrixOP            0      0.00%     81.26% # Class of committed instruction. (Count)
system.cpu1.commitStats0.committedInstType::MemRead       491555     13.23%     94.49% # Class of committed instruction. (Count)
system.cpu1.commitStats0.committedInstType::MemWrite       171310      4.61%     99.10% # Class of committed instruction. (Count)
system.cpu1.commitStats0.committedInstType::FloatMemRead        20846      0.56%     99.66% # Class of committed instruction. (Count)
system.cpu1.commitStats0.committedInstType::FloatMemWrite        12520      0.34%    100.00% # Class of committed instruction. (Count)
system.cpu1.commitStats0.committedInstType::IprAccess            0      0.00%    100.00% # Class of committed instruction. (Count)
system.cpu1.commitStats0.committedInstType::InstPrefetch            0      0.00%    100.00% # Class of committed instruction. (Count)
system.cpu1.commitStats0.committedInstType::VectorUnitStrideLoad            0      0.00%    100.00% # Class of committed instruction. (Count)
system.cpu1.commitStats0.committedInstType::VectorUnitStrideStore            0      0.00%    100.00% # Class of committed instruction. (Count)
system.cpu1.commitStats0.committedInstType::VectorUnitStrideMaskLoad            0      0.00%    100.00% # Class of committed instruction. (Count)
system.cpu1.commitStats0.committedInstType::VectorUnitStrideMaskStore            0      0.00%    100.00% # Class of committed instruction. (Count)
system.cpu1.commitStats0.committedInstType::VectorStridedLoad            0      0.00%    100.00% # Class of committed instruction. (Count)
system.cpu1.commitStats0.committedInstType::VectorStridedStore            0      0.00%    100.00% # Class of committed instruction. (Count)
system.cpu1.commitStats0.committedInstType::VectorIndexedLoad            0      0.00%    100.00% # Class of committed instruction. (Count)
system.cpu1.commitStats0.committedInstType::VectorIndexedStore            0      0.00%    100.00% # Class of committed instruction. (Count)
system.cpu1.commitStats0.committedInstType::VectorUnitStrideFaultOnlyFirstLoad            0      0.00%    100.00% # Class of committed instruction. (Count)
system.cpu1.commitStats0.committedInstType::VectorWholeRegisterLoad            0      0.00%    100.00% # Class of committed instruction. (Count)
system.cpu1.commitStats0.committedInstType::VectorWholeRegisterStore            0      0.00%    100.00% # Class of committed instruction. (Count)
system.cpu1.commitStats0.committedInstType::VectorIntegerArith            0      0.00%    100.00% # Class of committed instruction. (Count)
system.cpu1.commitStats0.committedInstType::VectorFloatArith            0      0.00%    100.00% # Class of committed instruction. (Count)
system.cpu1.commitStats0.committedInstType::VectorFloatConvert            0      0.00%    100.00% # Class of committed instruction. (Count)
system.cpu1.commitStats0.committedInstType::VectorIntegerReduce            0      0.00%    100.00% # Class of committed instruction. (Count)
system.cpu1.commitStats0.committedInstType::VectorFloatReduce            0      0.00%    100.00% # Class of committed instruction. (Count)
system.cpu1.commitStats0.committedInstType::VectorMisc            0      0.00%    100.00% # Class of committed instruction. (Count)
system.cpu1.commitStats0.committedInstType::VectorIntegerExtension            0      0.00%    100.00% # Class of committed instruction. (Count)
system.cpu1.commitStats0.committedInstType::VectorConfig            0      0.00%    100.00% # Class of committed instruction. (Count)
system.cpu1.commitStats0.committedInstType::total      3715592                       # Class of committed instruction. (Count)
system.cpu1.commitStats0.committedControl::IsControl       358815                       # Class of control type instructions committed (Count)
system.cpu1.commitStats0.committedControl::IsDirectControl       340317                       # Class of control type instructions committed (Count)
system.cpu1.commitStats0.committedControl::IsIndirectControl        18344                       # Class of control type instructions committed (Count)
system.cpu1.commitStats0.committedControl::IsCondControl       314455                       # Class of control type instructions committed (Count)
system.cpu1.commitStats0.committedControl::IsUncondControl        44206                       # Class of control type instructions committed (Count)
system.cpu1.commitStats0.committedControl::IsCall        11978                       # Class of control type instructions committed (Count)
system.cpu1.commitStats0.committedControl::IsReturn        11974                       # Class of control type instructions committed (Count)
system.cpu1.exec_context.thread_0.numMatAluAccesses            0                       # Number of matrix alu accesses (Count)
system.cpu1.exec_context.thread_0.numCallsReturns        23952                       # Number of times a function call or return occured (Count)
system.cpu1.exec_context.thread_0.numMatInsts            0                       # Number of matrix instructions (Count)
system.cpu1.exec_context.thread_0.numIdleCycles 528244.400301                       # Number of idle cycles (Cycle)
system.cpu1.exec_context.thread_0.numBusyCycles 9095067.599699                       # Number of busy cycles (Cycle)
system.cpu1.exec_context.thread_0.notIdleFraction     0.945108                       # Percentage of non-idle cycles (Ratio)
system.cpu1.exec_context.thread_0.idleFraction     0.054892                       # Percentage of idle cycles (Ratio)
system.cpu1.executeStats0.numInsts                  0                       # Number of executed instructions (Count)
system.cpu1.executeStats0.numNop                    0                       # Number of nop insts executed (Count)
system.cpu1.executeStats0.numBranches               0                       # Number of branches executed (Count)
system.cpu1.executeStats0.numLoadInsts              0                       # Number of load instructions executed (Count)
system.cpu1.executeStats0.numStoreInsts        696231                       # Number of stores executed (Count)
system.cpu1.executeStats0.instRate                  0                       # Inst execution rate ((Count/Cycle))
system.cpu1.executeStats0.numFpAluAccesses        81273                       # Number of float alu accesses (Count)
system.cpu1.executeStats0.numFpRegReads        114535                       # Number of times the floating registers were read (Count)
system.cpu1.executeStats0.numFpRegWrites        60521                       # Number of times the floating registers were written (Count)
system.cpu1.executeStats0.numIntAluAccesses      3654233                       # Number of integer alu accesses (Count)
system.cpu1.executeStats0.numIntRegReads      5270998                       # Number of times the integer registers were read (Count)
system.cpu1.executeStats0.numIntRegWrites      2872531                       # Number of times the integer registers were written (Count)
system.cpu1.executeStats0.numMemRefs           696231                       # Number of memory refs (Count)
system.cpu1.executeStats0.numMiscRegReads      1395782                       # Number of times the Misc registers were read (Count)
system.cpu1.executeStats0.numMiscRegWrites          702                       # Number of times the Misc registers were written (Count)
system.cpu1.executeStats0.numVecAluAccesses            0                       # Number of vector alu accesses (Count)
system.cpu1.executeStats0.numDiscardedOps            0                       # Number of ops (including micro ops) which were discarded before commit (Count)
system.cpu1.fetchStats0.numInsts              2128538                       # Number of instructions fetched (thread level) (Count)
system.cpu1.fetchStats0.numOps                3715592                       # Number of ops (including micro ops) fetched (thread level) (Count)
system.cpu1.fetchStats0.fetchRate            0.221186                       # Number of inst fetches per cycle ((Count/Cycle))
system.cpu1.fetchStats0.numBranches            358815                       # Number of branches fetched (Count)
system.cpu1.fetchStats0.branchRate           0.037286                       # Number of branch fetches per cycle (Ratio)
system.cpu1.fetchStats0.numFetchSuspends            0                       # Number of times Execute suspended instruction fetching (Count)
system.cpu1.interrupts.clk_domain.clock          8000                       # Clock period in ticks (Tick)
system.cpu1.mmu.dtb.rdAccesses                 512494                       # TLB accesses on read requests (Count)
system.cpu1.mmu.dtb.wrAccesses                 183837                       # TLB accesses on write requests (Count)
system.cpu1.mmu.dtb.rdMisses                     1278                       # TLB misses on read requests (Count)
system.cpu1.mmu.dtb.wrMisses                      104                       # TLB misses on write requests (Count)
system.cpu1.mmu.dtb.walker.power_state.pwrStateResidencyTicks::UNDEFINED   5091118500                       # Cumulative time (in ticks) in various power states (Tick)
system.cpu1.mmu.itb.rdAccesses                      0                       # TLB accesses on read requests (Count)
system.cpu1.mmu.itb.wrAccesses                2838395                       # TLB accesses on write requests (Count)
system.cpu1.mmu.itb.rdMisses                        0                       # TLB misses on read requests (Count)
system.cpu1.mmu.itb.wrMisses                      471                       # TLB misses on write requests (Count)
system.cpu1.mmu.itb.walker.power_state.pwrStateResidencyTicks::UNDEFINED   5091118500                       # Cumulative time (in ticks) in various power states (Tick)
system.cpu1.power_state.pwrStateResidencyTicks::ON   5091118500                       # Cumulative time (in ticks) in various power states (Tick)
system.cpu1.thread_0.numInsts                       0                       # Number of Instructions committed (Count)
system.cpu1.thread_0.numOps                         0                       # Number of Ops committed (Count)
system.cpu1.thread_0.numMemRefs                     0                       # Number of Memory References (Count)
system.cpu1.workload.numSyscalls                   68                       # Number of system calls (Count)
system.cpu2.numCycles                         9757060                       # Number of cpu cycles simulated (Cycle)
system.cpu2.cpi                              4.594548                       # CPI: cycles per instruction (core level) ((Cycle/Count))
system.cpu2.ipc                              0.217649                       # IPC: instructions per cycle (core level) ((Count/Cycle))
system.cpu2.numWorkItemsStarted                     0                       # Number of work items this cpu started (Count)
system.cpu2.numWorkItemsCompleted                   0                       # Number of work items this cpu completed (Count)
system.cpu2.commitStats0.numInsts             2123617                       # Number of instructions committed (thread level) (Count)
system.cpu2.commitStats0.numOps               3705668                       # Number of ops (including micro ops) committed (thread level) (Count)
system.cpu2.commitStats0.numInstsNotNOP             0                       # Number of instructions committed excluding NOPs or prefetches (Count)
system.cpu2.commitStats0.numOpsNotNOP               0                       # Number of Ops (including micro ops) Simulated (Count)
system.cpu2.commitStats0.cpi                 4.594548                       # CPI: cycles per instruction (thread level) ((Cycle/Count))
system.cpu2.commitStats0.ipc                 0.217649                       # IPC: instructions per cycle (thread level) ((Count/Cycle))
system.cpu2.commitStats0.numMemRefs                 0                       # Number of memory references committed (Count)
system.cpu2.commitStats0.numFpInsts             81047                       # Number of float instructions (Count)
system.cpu2.commitStats0.numIntInsts          3644490                       # Number of integer instructions (Count)
system.cpu2.commitStats0.numLoadInsts          511178                       # Number of load instructions (Count)
system.cpu2.commitStats0.numStoreInsts         183065                       # Number of store instructions (Count)
system.cpu2.commitStats0.numVecInsts                0                       # Number of vector instructions (Count)
system.cpu2.commitStats0.committedInstType::No_OpClass         9926      0.27%      0.27% # Class of committed instruction. (Count)
system.cpu2.commitStats0.committedInstType::IntAlu      2918562     78.76%     79.03% # Class of committed instruction. (Count)
system.cpu2.commitStats0.committedInstType::IntMult          110      0.00%     79.03% # Class of committed instruction. (Count)
system.cpu2.commitStats0.committedInstType::IntDiv        36261      0.98%     80.01% # Class of committed instruction. (Count)
system.cpu2.commitStats0.committedInstType::FloatAdd         3013      0.08%     80.09% # Class of committed instruction. (Count)
system.cpu2.commitStats0.committedInstType::FloatCmp            0      0.00%     80.09% # Class of committed instruction. (Count)
system.cpu2.commitStats0.committedInstType::FloatCvt         1248      0.03%     80.12% # Class of committed instruction. (Count)
system.cpu2.commitStats0.committedInstType::FloatMult            0      0.00%     80.12% # Class of committed instruction. (Count)
system.cpu2.commitStats0.committedInstType::FloatMultAcc            0      0.00%     80.12% # Class of committed instruction. (Count)
system.cpu2.commitStats0.committedInstType::FloatDiv            0      0.00%     80.12% # Class of committed instruction. (Count)
system.cpu2.commitStats0.committedInstType::FloatMisc            0      0.00%     80.12% # Class of committed instruction. (Count)
system.cpu2.commitStats0.committedInstType::FloatSqrt            0      0.00%     80.12% # Class of committed instruction. (Count)
system.cpu2.commitStats0.committedInstType::SimdAdd         6752      0.18%     80.31% # Class of committed instruction. (Count)
system.cpu2.commitStats0.committedInstType::SimdAddAcc            0      0.00%     80.31% # Class of committed instruction. (Count)
system.cpu2.commitStats0.committedInstType::SimdAlu        12534      0.34%     80.64% # Class of committed instruction. (Count)
system.cpu2.commitStats0.committedInstType::SimdCmp            0      0.00%     80.64% # Class of committed instruction. (Count)
system.cpu2.commitStats0.committedInstType::SimdCvt        13562      0.37%     81.01% # Class of committed instruction. (Count)
system.cpu2.commitStats0.committedInstType::SimdMisc         7743      0.21%     81.22% # Class of committed instruction. (Count)
system.cpu2.commitStats0.committedInstType::SimdMult            0      0.00%     81.22% # Class of committed instruction. (Count)
system.cpu2.commitStats0.committedInstType::SimdMultAcc            0      0.00%     81.22% # Class of committed instruction. (Count)
system.cpu2.commitStats0.committedInstType::SimdMatMultAcc            0      0.00%     81.22% # Class of committed instruction. (Count)
system.cpu2.commitStats0.committedInstType::SimdShift         1714      0.05%     81.27% # Class of committed instruction. (Count)
system.cpu2.commitStats0.committedInstType::SimdShiftAcc            0      0.00%     81.27% # Class of committed instruction. (Count)
system.cpu2.commitStats0.committedInstType::SimdDiv            0      0.00%     81.27% # Class of committed instruction. (Count)
system.cpu2.commitStats0.committedInstType::SimdSqrt            0      0.00%     81.27% # Class of committed instruction. (Count)
system.cpu2.commitStats0.committedInstType::SimdFloatAdd            0      0.00%     81.27% # Class of committed instruction. (Count)
system.cpu2.commitStats0.committedInstType::SimdFloatAlu            0      0.00%     81.27% # Class of committed instruction. (Count)
system.cpu2.commitStats0.committedInstType::SimdFloatCmp            0      0.00%     81.27% # Class of committed instruction. (Count)
system.cpu2.commitStats0.committedInstType::SimdFloatCvt            0      0.00%     81.27% # Class of committed instruction. (Count)
system.cpu2.commitStats0.committedInstType::SimdFloatDiv            0      0.00%     81.27% # Class of committed instruction. (Count)
system.cpu2.commitStats0.committedInstType::SimdFloatMisc            0      0.00%     81.27% # Class of committed instruction. (Count)
system.cpu2.commitStats0.committedInstType::SimdFloatMult            0      0.00%     81.27% # Class of committed instruction. (Count)
system.cpu2.commitStats0.committedInstType::SimdFloatMultAcc            0      0.00%     81.27% # Class of committed instruction. (Count)
system.cpu2.commitStats0.committedInstType::SimdFloatMatMultAcc            0      0.00%     81.27% # Class of committed instruction. (Count)
system.cpu2.commitStats0.committedInstType::SimdFloatSqrt            0      0.00%     81.27% # Class of committed instruction. (Count)
system.cpu2.commitStats0.committedInstType::SimdReduceAdd            0      0.00%     81.27% # Class of committed instruction. (Count)
system.cpu2.commitStats0.committedInstType::SimdReduceAlu            0      0.00%     81.27% # Class of committed instruction. (Count)
system.cpu2.commitStats0.committedInstType::SimdReduceCmp            0      0.00%     81.27% # Class of committed instruction. (Count)
system.cpu2.commitStats0.committedInstType::SimdFloatReduceAdd            0      0.00%     81.27% # Class of committed instruction. (Count)
system.cpu2.commitStats0.committedInstType::SimdFloatReduceCmp            0      0.00%     81.27% # Class of committed instruction. (Count)
system.cpu2.commitStats0.committedInstType::SimdAes            0      0.00%     81.27% # Class of committed instruction. (Count)
system.cpu2.commitStats0.committedInstType::SimdAesMix            0      0.00%     81.27% # Class of committed instruction. (Count)
system.cpu2.commitStats0.committedInstType::SimdSha1Hash            0      0.00%     81.27% # Class of committed instruction. (Count)
system.cpu2.commitStats0.committedInstType::SimdSha1Hash2            0      0.00%     81.27% # Class of committed instruction. (Count)
system.cpu2.commitStats0.committedInstType::SimdSha256Hash            0      0.00%     81.27% # Class of committed instruction. (Count)
system.cpu2.commitStats0.committedInstType::SimdSha256Hash2            0      0.00%     81.27% # Class of committed instruction. (Count)
system.cpu2.commitStats0.committedInstType::SimdShaSigma2            0      0.00%     81.27% # Class of committed instruction. (Count)
system.cpu2.commitStats0.committedInstType::SimdShaSigma3            0      0.00%     81.27% # Class of committed instruction. (Count)
system.cpu2.commitStats0.committedInstType::SimdPredAlu            0      0.00%     81.27% # Class of committed instruction. (Count)
system.cpu2.commitStats0.committedInstType::Matrix            0      0.00%     81.27% # Class of committed instruction. (Count)
system.cpu2.commitStats0.committedInstType::MatrixMov            0      0.00%     81.27% # Class of committed instruction. (Count)
system.cpu2.commitStats0.committedInstType::MatrixOP            0      0.00%     81.27% # Class of committed instruction. (Count)
system.cpu2.commitStats0.committedInstType::MemRead       490372     13.23%     94.50% # Class of committed instruction. (Count)
system.cpu2.commitStats0.committedInstType::MemWrite       170551      4.60%     99.10% # Class of committed instruction. (Count)
system.cpu2.commitStats0.committedInstType::FloatMemRead        20806      0.56%     99.66% # Class of committed instruction. (Count)
system.cpu2.commitStats0.committedInstType::FloatMemWrite        12514      0.34%    100.00% # Class of committed instruction. (Count)
system.cpu2.commitStats0.committedInstType::IprAccess            0      0.00%    100.00% # Class of committed instruction. (Count)
system.cpu2.commitStats0.committedInstType::InstPrefetch            0      0.00%    100.00% # Class of committed instruction. (Count)
system.cpu2.commitStats0.committedInstType::VectorUnitStrideLoad            0      0.00%    100.00% # Class of committed instruction. (Count)
system.cpu2.commitStats0.committedInstType::VectorUnitStrideStore            0      0.00%    100.00% # Class of committed instruction. (Count)
system.cpu2.commitStats0.committedInstType::VectorUnitStrideMaskLoad            0      0.00%    100.00% # Class of committed instruction. (Count)
system.cpu2.commitStats0.committedInstType::VectorUnitStrideMaskStore            0      0.00%    100.00% # Class of committed instruction. (Count)
system.cpu2.commitStats0.committedInstType::VectorStridedLoad            0      0.00%    100.00% # Class of committed instruction. (Count)
system.cpu2.commitStats0.committedInstType::VectorStridedStore            0      0.00%    100.00% # Class of committed instruction. (Count)
system.cpu2.commitStats0.committedInstType::VectorIndexedLoad            0      0.00%    100.00% # Class of committed instruction. (Count)
system.cpu2.commitStats0.committedInstType::VectorIndexedStore            0      0.00%    100.00% # Class of committed instruction. (Count)
system.cpu2.commitStats0.committedInstType::VectorUnitStrideFaultOnlyFirstLoad            0      0.00%    100.00% # Class of committed instruction. (Count)
system.cpu2.commitStats0.committedInstType::VectorWholeRegisterLoad            0      0.00%    100.00% # Class of committed instruction. (Count)
system.cpu2.commitStats0.committedInstType::VectorWholeRegisterStore            0      0.00%    100.00% # Class of committed instruction. (Count)
system.cpu2.commitStats0.committedInstType::VectorIntegerArith            0      0.00%    100.00% # Class of committed instruction. (Count)
system.cpu2.commitStats0.committedInstType::VectorFloatArith            0      0.00%    100.00% # Class of committed instruction. (Count)
system.cpu2.commitStats0.committedInstType::VectorFloatConvert            0      0.00%    100.00% # Class of committed instruction. (Count)
system.cpu2.commitStats0.committedInstType::VectorIntegerReduce            0      0.00%    100.00% # Class of committed instruction. (Count)
system.cpu2.commitStats0.committedInstType::VectorFloatReduce            0      0.00%    100.00% # Class of committed instruction. (Count)
system.cpu2.commitStats0.committedInstType::VectorMisc            0      0.00%    100.00% # Class of committed instruction. (Count)
system.cpu2.commitStats0.committedInstType::VectorIntegerExtension            0      0.00%    100.00% # Class of committed instruction. (Count)
system.cpu2.commitStats0.committedInstType::VectorConfig            0      0.00%    100.00% # Class of committed instruction. (Count)
system.cpu2.commitStats0.committedInstType::total      3705668                       # Class of committed instruction. (Count)
system.cpu2.commitStats0.committedControl::IsControl       357645                       # Class of control type instructions committed (Count)
system.cpu2.commitStats0.committedControl::IsDirectControl       339313                       # Class of control type instructions committed (Count)
system.cpu2.commitStats0.committedControl::IsIndirectControl        18178                       # Class of control type instructions committed (Count)
system.cpu2.commitStats0.committedControl::IsCondControl       313560                       # Class of control type instructions committed (Count)
system.cpu2.commitStats0.committedControl::IsUncondControl        43931                       # Class of control type instructions committed (Count)
system.cpu2.commitStats0.committedControl::IsCall        11882                       # Class of control type instructions committed (Count)
system.cpu2.commitStats0.committedControl::IsReturn        11878                       # Class of control type instructions committed (Count)
system.cpu2.exec_context.thread_0.numMatAluAccesses            0                       # Number of matrix alu accesses (Count)
system.cpu2.exec_context.thread_0.numCallsReturns        23760                       # Number of times a function call or return occured (Count)
system.cpu2.exec_context.thread_0.numMatInsts            0                       # Number of matrix instructions (Count)
system.cpu2.exec_context.thread_0.numIdleCycles 407422.997355                       # Number of idle cycles (Cycle)
system.cpu2.exec_context.thread_0.numBusyCycles 9349637.002645                       # Number of busy cycles (Cycle)
system.cpu2.exec_context.thread_0.notIdleFraction     0.958243                       # Percentage of non-idle cycles (Ratio)
system.cpu2.exec_context.thread_0.idleFraction     0.041757                       # Percentage of idle cycles (Ratio)
system.cpu2.executeStats0.numInsts                  0                       # Number of executed instructions (Count)
system.cpu2.executeStats0.numNop                    0                       # Number of nop insts executed (Count)
system.cpu2.executeStats0.numBranches               0                       # Number of branches executed (Count)
system.cpu2.executeStats0.numLoadInsts              0                       # Number of load instructions executed (Count)
system.cpu2.executeStats0.numStoreInsts        694243                       # Number of stores executed (Count)
system.cpu2.executeStats0.instRate                  0                       # Inst execution rate ((Count/Cycle))
system.cpu2.executeStats0.numFpAluAccesses        81047                       # Number of float alu accesses (Count)
system.cpu2.executeStats0.numFpRegReads        114165                       # Number of times the floating registers were read (Count)
system.cpu2.executeStats0.numFpRegWrites        60335                       # Number of times the floating registers were written (Count)
system.cpu2.executeStats0.numIntAluAccesses      3644490                       # Number of integer alu accesses (Count)
system.cpu2.executeStats0.numIntRegReads      5258534                       # Number of times the integer registers were read (Count)
system.cpu2.executeStats0.numIntRegWrites      2865574                       # Number of times the integer registers were written (Count)
system.cpu2.executeStats0.numMemRefs           694243                       # Number of memory refs (Count)
system.cpu2.executeStats0.numMiscRegReads      1391430                       # Number of times the Misc registers were read (Count)
system.cpu2.executeStats0.numMiscRegWrites          702                       # Number of times the Misc registers were written (Count)
system.cpu2.executeStats0.numVecAluAccesses            0                       # Number of vector alu accesses (Count)
system.cpu2.executeStats0.numDiscardedOps            0                       # Number of ops (including micro ops) which were discarded before commit (Count)
system.cpu2.fetchStats0.numInsts              2123617                       # Number of instructions fetched (thread level) (Count)
system.cpu2.fetchStats0.numOps                3705668                       # Number of ops (including micro ops) fetched (thread level) (Count)
system.cpu2.fetchStats0.fetchRate            0.217649                       # Number of inst fetches per cycle ((Count/Cycle))
system.cpu2.fetchStats0.numBranches            357645                       # Number of branches fetched (Count)
system.cpu2.fetchStats0.branchRate           0.036655                       # Number of branch fetches per cycle (Ratio)
system.cpu2.fetchStats0.numFetchSuspends            0                       # Number of times Execute suspended instruction fetching (Count)
system.cpu2.interrupts.clk_domain.clock          8000                       # Clock period in ticks (Tick)
system.cpu2.mmu.dtb.rdAccesses                 511266                       # TLB accesses on read requests (Count)
system.cpu2.mmu.dtb.wrAccesses                 183070                       # TLB accesses on write requests (Count)
system.cpu2.mmu.dtb.rdMisses                     1297                       # TLB misses on read requests (Count)
system.cpu2.mmu.dtb.wrMisses                       96                       # TLB misses on write requests (Count)
system.cpu2.mmu.dtb.walker.power_state.pwrStateResidencyTicks::UNDEFINED   5091118500                       # Cumulative time (in ticks) in various power states (Tick)
system.cpu2.mmu.itb.rdAccesses                      0                       # TLB accesses on read requests (Count)
system.cpu2.mmu.itb.wrAccesses                2831832                       # TLB accesses on write requests (Count)
system.cpu2.mmu.itb.rdMisses                        0                       # TLB misses on read requests (Count)
system.cpu2.mmu.itb.wrMisses                      461                       # TLB misses on write requests (Count)
system.cpu2.mmu.itb.walker.power_state.pwrStateResidencyTicks::UNDEFINED   5091118500                       # Cumulative time (in ticks) in various power states (Tick)
system.cpu2.power_state.pwrStateResidencyTicks::ON   5091118500                       # Cumulative time (in ticks) in various power states (Tick)
system.cpu2.thread_0.numInsts                       0                       # Number of Instructions committed (Count)
system.cpu2.thread_0.numOps                         0                       # Number of Ops committed (Count)
system.cpu2.thread_0.numMemRefs                     0                       # Number of Memory References (Count)
system.cpu2.workload.numSyscalls                   62                       # Number of system calls (Count)
system.cpu_clk_domain.clock                       500                       # Clock period in ticks (Tick)
system.cpu_voltage_domain.voltage                   1                       # Voltage in Volts (Volt)
system.mem_ctrls0.avgPriority_ruby.dir_cntrl0::samples     14076.00                       # Average QoS priority value for accepted requests (Count)
system.mem_ctrls0.priorityMinLatency     0.000000018750                       # per QoS priority minimum request to response latency (Second)
system.mem_ctrls0.priorityMaxLatency     0.000766817500                       # per QoS priority maximum request to response latency (Second)
system.mem_ctrls0.numReadWriteTurnArounds          104                       # Number of turnarounds from READ to WRITE (Count)
system.mem_ctrls0.numWriteReadTurnArounds          104                       # Number of turnarounds from WRITE to READ (Count)
system.mem_ctrls0.numStayReadState              27510                       # Number of times bus staying in READ state (Count)
system.mem_ctrls0.numStayWriteState              1688                       # Number of times bus staying in WRITE state (Count)
system.mem_ctrls0.readReqs                      12448                       # Number of read requests accepted (Count)
system.mem_ctrls0.writeReqs                      1809                       # Number of write requests accepted (Count)
system.mem_ctrls0.readBursts                    12448                       # Number of controller read bursts, including those serviced by the write queue (Count)
system.mem_ctrls0.writeBursts                    1809                       # Number of controller write bursts, including those merged in the write queue (Count)
system.mem_ctrls0.servicedByWrQ                   179                       # Number of controller read bursts serviced by the write queue (Count)
system.mem_ctrls0.mergedWrBursts                    2                       # Number of controller write bursts merged with an existing one (Count)
system.mem_ctrls0.neitherReadNorWriteReqs            0                       # Number of requests that are neither read nor write (Count)
system.mem_ctrls0.avgRdQLen                      1.15                       # Average read queue length when enqueuing ((Count/Tick))
system.mem_ctrls0.avgWrQLen                     24.36                       # Average write queue length when enqueuing ((Count/Tick))
system.mem_ctrls0.numRdRetry                        0                       # Number of times read queue was full causing retry (Count)
system.mem_ctrls0.numWrRetry                        0                       # Number of times write queue was full causing retry (Count)
system.mem_ctrls0.readPktSize::0                    0                       # Read request sizes (log2) (Count)
system.mem_ctrls0.readPktSize::1                    0                       # Read request sizes (log2) (Count)
system.mem_ctrls0.readPktSize::2                    0                       # Read request sizes (log2) (Count)
system.mem_ctrls0.readPktSize::3                    0                       # Read request sizes (log2) (Count)
system.mem_ctrls0.readPktSize::4                    0                       # Read request sizes (log2) (Count)
system.mem_ctrls0.readPktSize::5                    0                       # Read request sizes (log2) (Count)
system.mem_ctrls0.readPktSize::6                12448                       # Read request sizes (log2) (Count)
system.mem_ctrls0.writePktSize::0                   0                       # Write request sizes (log2) (Count)
system.mem_ctrls0.writePktSize::1                   0                       # Write request sizes (log2) (Count)
system.mem_ctrls0.writePktSize::2                   0                       # Write request sizes (log2) (Count)
system.mem_ctrls0.writePktSize::3                   0                       # Write request sizes (log2) (Count)
system.mem_ctrls0.writePktSize::4                   0                       # Write request sizes (log2) (Count)
system.mem_ctrls0.writePktSize::5                   0                       # Write request sizes (log2) (Count)
system.mem_ctrls0.writePktSize::6                1809                       # Write request sizes (log2) (Count)
system.mem_ctrls0.rdQLenPdf::0                  10799                       # What read queue length does an incoming req see (Count)
system.mem_ctrls0.rdQLenPdf::1                   1423                       # What read queue length does an incoming req see (Count)
system.mem_ctrls0.rdQLenPdf::2                     47                       # What read queue length does an incoming req see (Count)
system.mem_ctrls0.rdQLenPdf::3                      0                       # What read queue length does an incoming req see (Count)
system.mem_ctrls0.rdQLenPdf::4                      0                       # What read queue length does an incoming req see (Count)
system.mem_ctrls0.rdQLenPdf::5                      0                       # What read queue length does an incoming req see (Count)
system.mem_ctrls0.rdQLenPdf::6                      0                       # What read queue length does an incoming req see (Count)
system.mem_ctrls0.rdQLenPdf::7                      0                       # What read queue length does an incoming req see (Count)
system.mem_ctrls0.rdQLenPdf::8                      0                       # What read queue length does an incoming req see (Count)
system.mem_ctrls0.rdQLenPdf::9                      0                       # What read queue length does an incoming req see (Count)
system.mem_ctrls0.rdQLenPdf::10                     0                       # What read queue length does an incoming req see (Count)
system.mem_ctrls0.rdQLenPdf::11                     0                       # What read queue length does an incoming req see (Count)
system.mem_ctrls0.rdQLenPdf::12                     0                       # What read queue length does an incoming req see (Count)
system.mem_ctrls0.rdQLenPdf::13                     0                       # What read queue length does an incoming req see (Count)
system.mem_ctrls0.rdQLenPdf::14                     0                       # What read queue length does an incoming req see (Count)
system.mem_ctrls0.rdQLenPdf::15                     0                       # What read queue length does an incoming req see (Count)
system.mem_ctrls0.rdQLenPdf::16                     0                       # What read queue length does an incoming req see (Count)
system.mem_ctrls0.rdQLenPdf::17                     0                       # What read queue length does an incoming req see (Count)
system.mem_ctrls0.rdQLenPdf::18                     0                       # What read queue length does an incoming req see (Count)
system.mem_ctrls0.rdQLenPdf::19                     0                       # What read queue length does an incoming req see (Count)
system.mem_ctrls0.rdQLenPdf::20                     0                       # What read queue length does an incoming req see (Count)
system.mem_ctrls0.rdQLenPdf::21                     0                       # What read queue length does an incoming req see (Count)
system.mem_ctrls0.rdQLenPdf::22                     0                       # What read queue length does an incoming req see (Count)
system.mem_ctrls0.rdQLenPdf::23                     0                       # What read queue length does an incoming req see (Count)
system.mem_ctrls0.rdQLenPdf::24                     0                       # What read queue length does an incoming req see (Count)
system.mem_ctrls0.rdQLenPdf::25                     0                       # What read queue length does an incoming req see (Count)
system.mem_ctrls0.rdQLenPdf::26                     0                       # What read queue length does an incoming req see (Count)
system.mem_ctrls0.rdQLenPdf::27                     0                       # What read queue length does an incoming req see (Count)
system.mem_ctrls0.rdQLenPdf::28                     0                       # What read queue length does an incoming req see (Count)
system.mem_ctrls0.rdQLenPdf::29                     0                       # What read queue length does an incoming req see (Count)
system.mem_ctrls0.rdQLenPdf::30                     0                       # What read queue length does an incoming req see (Count)
system.mem_ctrls0.rdQLenPdf::31                     0                       # What read queue length does an incoming req see (Count)
system.mem_ctrls0.wrQLenPdf::0                      1                       # What write queue length does an incoming req see (Count)
system.mem_ctrls0.wrQLenPdf::1                      1                       # What write queue length does an incoming req see (Count)
system.mem_ctrls0.wrQLenPdf::2                      1                       # What write queue length does an incoming req see (Count)
system.mem_ctrls0.wrQLenPdf::3                      1                       # What write queue length does an incoming req see (Count)
system.mem_ctrls0.wrQLenPdf::4                      1                       # What write queue length does an incoming req see (Count)
system.mem_ctrls0.wrQLenPdf::5                      1                       # What write queue length does an incoming req see (Count)
system.mem_ctrls0.wrQLenPdf::6                      1                       # What write queue length does an incoming req see (Count)
system.mem_ctrls0.wrQLenPdf::7                      1                       # What write queue length does an incoming req see (Count)
system.mem_ctrls0.wrQLenPdf::8                      1                       # What write queue length does an incoming req see (Count)
system.mem_ctrls0.wrQLenPdf::9                      1                       # What write queue length does an incoming req see (Count)
system.mem_ctrls0.wrQLenPdf::10                     1                       # What write queue length does an incoming req see (Count)
system.mem_ctrls0.wrQLenPdf::11                     1                       # What write queue length does an incoming req see (Count)
system.mem_ctrls0.wrQLenPdf::12                     1                       # What write queue length does an incoming req see (Count)
system.mem_ctrls0.wrQLenPdf::13                     1                       # What write queue length does an incoming req see (Count)
system.mem_ctrls0.wrQLenPdf::14                     1                       # What write queue length does an incoming req see (Count)
system.mem_ctrls0.wrQLenPdf::15                    62                       # What write queue length does an incoming req see (Count)
system.mem_ctrls0.wrQLenPdf::16                    63                       # What write queue length does an incoming req see (Count)
system.mem_ctrls0.wrQLenPdf::17                   101                       # What write queue length does an incoming req see (Count)
system.mem_ctrls0.wrQLenPdf::18                   105                       # What write queue length does an incoming req see (Count)
system.mem_ctrls0.wrQLenPdf::19                   104                       # What write queue length does an incoming req see (Count)
system.mem_ctrls0.wrQLenPdf::20                   105                       # What write queue length does an incoming req see (Count)
system.mem_ctrls0.wrQLenPdf::21                   104                       # What write queue length does an incoming req see (Count)
system.mem_ctrls0.wrQLenPdf::22                   104                       # What write queue length does an incoming req see (Count)
system.mem_ctrls0.wrQLenPdf::23                   104                       # What write queue length does an incoming req see (Count)
system.mem_ctrls0.wrQLenPdf::24                   104                       # What write queue length does an incoming req see (Count)
system.mem_ctrls0.wrQLenPdf::25                   104                       # What write queue length does an incoming req see (Count)
system.mem_ctrls0.wrQLenPdf::26                   105                       # What write queue length does an incoming req see (Count)
system.mem_ctrls0.wrQLenPdf::27                   105                       # What write queue length does an incoming req see (Count)
system.mem_ctrls0.wrQLenPdf::28                   104                       # What write queue length does an incoming req see (Count)
system.mem_ctrls0.wrQLenPdf::29                   106                       # What write queue length does an incoming req see (Count)
system.mem_ctrls0.wrQLenPdf::30                   104                       # What write queue length does an incoming req see (Count)
system.mem_ctrls0.wrQLenPdf::31                   104                       # What write queue length does an incoming req see (Count)
system.mem_ctrls0.wrQLenPdf::32                   104                       # What write queue length does an incoming req see (Count)
system.mem_ctrls0.wrQLenPdf::33                     0                       # What write queue length does an incoming req see (Count)
system.mem_ctrls0.wrQLenPdf::34                     0                       # What write queue length does an incoming req see (Count)
system.mem_ctrls0.wrQLenPdf::35                     0                       # What write queue length does an incoming req see (Count)
system.mem_ctrls0.wrQLenPdf::36                     0                       # What write queue length does an incoming req see (Count)
system.mem_ctrls0.wrQLenPdf::37                     0                       # What write queue length does an incoming req see (Count)
system.mem_ctrls0.wrQLenPdf::38                     0                       # What write queue length does an incoming req see (Count)
system.mem_ctrls0.wrQLenPdf::39                     0                       # What write queue length does an incoming req see (Count)
system.mem_ctrls0.wrQLenPdf::40                     0                       # What write queue length does an incoming req see (Count)
system.mem_ctrls0.wrQLenPdf::41                     0                       # What write queue length does an incoming req see (Count)
system.mem_ctrls0.wrQLenPdf::42                     0                       # What write queue length does an incoming req see (Count)
system.mem_ctrls0.wrQLenPdf::43                     0                       # What write queue length does an incoming req see (Count)
system.mem_ctrls0.wrQLenPdf::44                     0                       # What write queue length does an incoming req see (Count)
system.mem_ctrls0.wrQLenPdf::45                     0                       # What write queue length does an incoming req see (Count)
system.mem_ctrls0.wrQLenPdf::46                     0                       # What write queue length does an incoming req see (Count)
system.mem_ctrls0.wrQLenPdf::47                     0                       # What write queue length does an incoming req see (Count)
system.mem_ctrls0.wrQLenPdf::48                     0                       # What write queue length does an incoming req see (Count)
system.mem_ctrls0.wrQLenPdf::49                     0                       # What write queue length does an incoming req see (Count)
system.mem_ctrls0.wrQLenPdf::50                     0                       # What write queue length does an incoming req see (Count)
system.mem_ctrls0.wrQLenPdf::51                     0                       # What write queue length does an incoming req see (Count)
system.mem_ctrls0.wrQLenPdf::52                     0                       # What write queue length does an incoming req see (Count)
system.mem_ctrls0.wrQLenPdf::53                     0                       # What write queue length does an incoming req see (Count)
system.mem_ctrls0.wrQLenPdf::54                     0                       # What write queue length does an incoming req see (Count)
system.mem_ctrls0.wrQLenPdf::55                     0                       # What write queue length does an incoming req see (Count)
system.mem_ctrls0.wrQLenPdf::56                     0                       # What write queue length does an incoming req see (Count)
system.mem_ctrls0.wrQLenPdf::57                     0                       # What write queue length does an incoming req see (Count)
system.mem_ctrls0.wrQLenPdf::58                     0                       # What write queue length does an incoming req see (Count)
system.mem_ctrls0.wrQLenPdf::59                     0                       # What write queue length does an incoming req see (Count)
system.mem_ctrls0.wrQLenPdf::60                     0                       # What write queue length does an incoming req see (Count)
system.mem_ctrls0.wrQLenPdf::61                     0                       # What write queue length does an incoming req see (Count)
system.mem_ctrls0.wrQLenPdf::62                     0                       # What write queue length does an incoming req see (Count)
system.mem_ctrls0.wrQLenPdf::63                     0                       # What write queue length does an incoming req see (Count)
system.mem_ctrls0.rdPerTurnAround::samples          104                       # Reads before turning the bus around for writes (Count)
system.mem_ctrls0.rdPerTurnAround::mean    117.605769                       # Reads before turning the bus around for writes (Count)
system.mem_ctrls0.rdPerTurnAround::gmean    97.912369                       # Reads before turning the bus around for writes (Count)
system.mem_ctrls0.rdPerTurnAround::stdev   107.579947                       # Reads before turning the bus around for writes (Count)
system.mem_ctrls0.rdPerTurnAround::0-63            23     22.12%     22.12% # Reads before turning the bus around for writes (Count)
system.mem_ctrls0.rdPerTurnAround::64-127           50     48.08%     70.19% # Reads before turning the bus around for writes (Count)
system.mem_ctrls0.rdPerTurnAround::128-191           21     20.19%     90.38% # Reads before turning the bus around for writes (Count)
system.mem_ctrls0.rdPerTurnAround::192-255            6      5.77%     96.15% # Reads before turning the bus around for writes (Count)
system.mem_ctrls0.rdPerTurnAround::256-319            3      2.88%     99.04% # Reads before turning the bus around for writes (Count)
system.mem_ctrls0.rdPerTurnAround::1024-1087            1      0.96%    100.00% # Reads before turning the bus around for writes (Count)
system.mem_ctrls0.rdPerTurnAround::total          104                       # Reads before turning the bus around for writes (Count)
system.mem_ctrls0.wrPerTurnAround::samples          104                       # Writes before turning the bus around for reads (Count)
system.mem_ctrls0.wrPerTurnAround::mean     17.211538                       # Writes before turning the bus around for reads (Count)
system.mem_ctrls0.wrPerTurnAround::gmean    17.181197                       # Writes before turning the bus around for reads (Count)
system.mem_ctrls0.wrPerTurnAround::stdev     1.020880                       # Writes before turning the bus around for reads (Count)
system.mem_ctrls0.wrPerTurnAround::16              42     40.38%     40.38% # Writes before turning the bus around for reads (Count)
system.mem_ctrls0.wrPerTurnAround::17               1      0.96%     41.35% # Writes before turning the bus around for reads (Count)
system.mem_ctrls0.wrPerTurnAround::18              58     55.77%     97.12% # Writes before turning the bus around for reads (Count)
system.mem_ctrls0.wrPerTurnAround::19               3      2.88%    100.00% # Writes before turning the bus around for reads (Count)
system.mem_ctrls0.wrPerTurnAround::total          104                       # Writes before turning the bus around for reads (Count)
system.mem_ctrls0.bytesReadWrQ                  11456                       # Total number of bytes read from write queue (Byte)
[...]
system.ruby.network.netifs7.power_state.pwrStateResidencyTicks::UNDEFINED   5091118500                       # Cumulative time (in ticks) in various power states (Tick)
system.ruby.network.netifs8.power_state.pwrStateResidencyTicks::UNDEFINED   5091118500                       # Cumulative time (in ticks) in various power states (Tick)
system.ruby.network.netifs9.power_state.pwrStateResidencyTicks::UNDEFINED   5091118500                       # Cumulative time (in ticks) in various power states (Tick)
system.ruby.network.power_state.pwrStateResidencyTicks::UNDEFINED   5091118500                       # Cumulative time (in ticks) in various power states (Tick)
system.ruby.network.routers0.power_state.pwrStateResidencyTicks::UNDEFINED   5091118500                       # Cumulative time (in ticks) in various power states (Tick)
system.ruby.network.routers1.power_state.pwrStateResidencyTicks::UNDEFINED   5091118500                       # Cumulative time (in ticks) in various power states (Tick)
system.ruby.network.routers2.power_state.pwrStateResidencyTicks::UNDEFINED   5091118500                       # Cumulative time (in ticks) in various power states (Tick)
system.ruby.network.routers3.power_state.pwrStateResidencyTicks::UNDEFINED   5091118500                       # Cumulative time (in ticks) in various power states (Tick)
system.ruby.network.routers4.power_state.pwrStateResidencyTicks::UNDEFINED   5091118500                       # Cumulative time (in ticks) in various power states (Tick)
system.ruby.network.routers5.power_state.pwrStateResidencyTicks::UNDEFINED   5091118500                       # Cumulative time (in ticks) in various power states (Tick)
system.ruby.network.routers6.power_state.pwrStateResidencyTicks::UNDEFINED   5091118500                       # Cumulative time (in ticks) in various power states (Tick)
system.ruby.power_state.pwrStateResidencyTicks::UNDEFINED   5091118500                       # Cumulative time (in ticks) in various power states (Tick)
system.sys_port_proxy.power_state.pwrStateResidencyTicks::UNDEFINED   5091118500                       # Cumulative time (in ticks) in various power states (Tick)
system.voltage_domain.voltage                       1                       # Voltage in Volts (Volt)
system.workload.inst.arm                            0                       # number of arm instructions executed (Count)
system.workload.inst.quiesce                        0                       # number of quiesce instructions executed (Count)
system.ruby.network.average_flit_latency  4044.607642                       (Unspecified)
system.ruby.network.average_flit_network_latency  3247.566006                       (Unspecified)
system.ruby.network.average_flit_queueing_latency   797.041636                       (Unspecified)
system.ruby.network.average_flit_vnet_latency | 3007.201431                       | 3620.520223                       | 2329.226370                       (Unspecified)
system.ruby.network.average_flit_vqueue_latency | 1158.629019                       |  635.706369                       |         500                       (Unspecified)
system.ruby.network.average_hops             1.222760                       (Unspecified)
system.ruby.network.average_packet_latency  4044.607642                       (Unspecified)
system.ruby.network.average_packet_network_latency  3247.566006                       (Unspecified)
system.ruby.network.average_packet_queueing_latency   797.041636                       (Unspecified)
system.ruby.network.average_packet_vnet_latency | 3007.201431                       | 3620.520223                       | 2329.226370                       (Unspecified)
system.ruby.network.average_packet_vqueue_latency | 1158.629019                       |  635.706369                       |         500                       (Unspecified)
system.ruby.network.avg_link_utilization     0.175504                       (Unspecified)
system.ruby.network.avg_vc_load          |    0.031029     17.68%     17.68% |    0.014531      8.28%     25.96% |    0.004440      2.53%     28.49% |    0.004395      2.50%     30.99% |    0.076826     43.77%     74.77% |    0.012453      7.10%     81.86% |    0.006812      3.88%     85.75% |    0.006778      3.86%     89.61% |    0.013325      7.59%     97.20% |    0.001686      0.96%     98.16% |    0.001614      0.92%     99.08% |    0.001614      0.92%    100.00% (Unspecified)
system.ruby.network.avg_vc_load::total       0.175504                       (Unspecified)
system.ruby.network.ctrl_traffic_distribution.n0.n0        32956                       (Unspecified)
system.ruby.network.ctrl_traffic_distribution.n0.n1        34190                       (Unspecified)
system.ruby.network.ctrl_traffic_distribution.n0.n2         1177                       (Unspecified)
system.ruby.network.ctrl_traffic_distribution.n0.n3         7354                       (Unspecified)
system.ruby.network.ctrl_traffic_distribution.n0.n4         5026                       (Unspecified)
system.ruby.network.ctrl_traffic_distribution.n0.n5         7303                       (Unspecified)
system.ruby.network.ctrl_traffic_distribution.n0.n6         5031                       (Unspecified)
system.ruby.network.ctrl_traffic_distribution.n1.n0        31169                       (Unspecified)
system.ruby.network.ctrl_traffic_distribution.n1.n1        32235                       (Unspecified)
system.ruby.network.ctrl_traffic_distribution.n1.n2         1201                       (Unspecified)
system.ruby.network.ctrl_traffic_distribution.n1.n3         5094                       (Unspecified)
system.ruby.network.ctrl_traffic_distribution.n1.n4         7401                       (Unspecified)
system.ruby.network.ctrl_traffic_distribution.n1.n5         5033                       (Unspecified)
system.ruby.network.ctrl_traffic_distribution.n1.n6         7610                       (Unspecified)
system.ruby.network.ctrl_traffic_distribution.n2.n0        29563                       (Unspecified)
system.ruby.network.ctrl_traffic_distribution.n2.n1        30586                       (Unspecified)
system.ruby.network.ctrl_traffic_distribution.n2.n2            0                       (Unspecified)
system.ruby.network.ctrl_traffic_distribution.n2.n3            0                       (Unspecified)
system.ruby.network.ctrl_traffic_distribution.n2.n4            0                       (Unspecified)
system.ruby.network.ctrl_traffic_distribution.n2.n5            0                       (Unspecified)
system.ruby.network.ctrl_traffic_distribution.n2.n6            0                       (Unspecified)
system.ruby.network.ctrl_traffic_distribution.n3.n0            0                       (Unspecified)
system.ruby.network.ctrl_traffic_distribution.n3.n1            0                       (Unspecified)
system.ruby.network.ctrl_traffic_distribution.n3.n2            0                       (Unspecified)
system.ruby.network.ctrl_traffic_distribution.n3.n3            0                       (Unspecified)
system.ruby.network.ctrl_traffic_distribution.n3.n4            0                       (Unspecified)
system.ruby.network.ctrl_traffic_distribution.n3.n5            0                       (Unspecified)
system.ruby.network.ctrl_traffic_distribution.n3.n6            0                       (Unspecified)
system.ruby.network.ctrl_traffic_distribution.n4.n0            0                       (Unspecified)
system.ruby.network.ctrl_traffic_distribution.n4.n1            0                       (Unspecified)
system.ruby.network.ctrl_traffic_distribution.n4.n2            0                       (Unspecified)
system.ruby.network.ctrl_traffic_distribution.n4.n3            0                       (Unspecified)
system.ruby.network.ctrl_traffic_distribution.n4.n4            0                       (Unspecified)
system.ruby.network.ctrl_traffic_distribution.n4.n5            0                       (Unspecified)
system.ruby.network.ctrl_traffic_distribution.n4.n6            0                       (Unspecified)
system.ruby.network.ctrl_traffic_distribution.n5.n0            0                       (Unspecified)
system.ruby.network.ctrl_traffic_distribution.n5.n1            0                       (Unspecified)
system.ruby.network.ctrl_traffic_distribution.n5.n2            0                       (Unspecified)
system.ruby.network.ctrl_traffic_distribution.n5.n3            0                       (Unspecified)
system.ruby.network.ctrl_traffic_distribution.n5.n4            0                       (Unspecified)
system.ruby.network.ctrl_traffic_distribution.n5.n5            0                       (Unspecified)
system.ruby.network.ctrl_traffic_distribution.n5.n6            0                       (Unspecified)
system.ruby.network.ctrl_traffic_distribution.n6.n0            0                       (Unspecified)
system.ruby.network.ctrl_traffic_distribution.n6.n1            0                       (Unspecified)
system.ruby.network.ctrl_traffic_distribution.n6.n2            0                       (Unspecified)
system.ruby.network.ctrl_traffic_distribution.n6.n3            0                       (Unspecified)
system.ruby.network.ctrl_traffic_distribution.n6.n4            0                       (Unspecified)
system.ruby.network.ctrl_traffic_distribution.n6.n5            0                       (Unspecified)
system.ruby.network.ctrl_traffic_distribution.n6.n6            0                       (Unspecified)
system.ruby.network.data_traffic_distribution.n0.n0        23164                       (Unspecified)
system.ruby.network.data_traffic_distribution.n0.n1        21706                       (Unspecified)
system.ruby.network.data_traffic_distribution.n0.n2        20151                       (Unspecified)
system.ruby.network.data_traffic_distribution.n0.n3         6632                       (Unspecified)
system.ruby.network.data_traffic_distribution.n0.n4         4692                       (Unspecified)
system.ruby.network.data_traffic_distribution.n0.n5         6621                       (Unspecified)
system.ruby.network.data_traffic_distribution.n0.n6         4721                       (Unspecified)
system.ruby.network.data_traffic_distribution.n1.n0        24017                       (Unspecified)
system.ruby.network.data_traffic_distribution.n1.n1        22436                       (Unspecified)
system.ruby.network.data_traffic_distribution.n1.n2        20858                       (Unspecified)
system.ruby.network.data_traffic_distribution.n1.n3         4775                       (Unspecified)
system.ruby.network.data_traffic_distribution.n1.n4         6717                       (Unspecified)
system.ruby.network.data_traffic_distribution.n1.n5         4724                       (Unspecified)
system.ruby.network.data_traffic_distribution.n1.n6         6874                       (Unspecified)
system.ruby.network.data_traffic_distribution.n2.n0         1177                       (Unspecified)
system.ruby.network.data_traffic_distribution.n2.n1         1201                       (Unspecified)
system.ruby.network.data_traffic_distribution.n2.n2            0                       (Unspecified)
system.ruby.network.data_traffic_distribution.n2.n3            0                       (Unspecified)
system.ruby.network.data_traffic_distribution.n2.n4            0                       (Unspecified)
system.ruby.network.data_traffic_distribution.n2.n5            0                       (Unspecified)
system.ruby.network.data_traffic_distribution.n2.n6            0                       (Unspecified)
system.ruby.network.data_traffic_distribution.n3.n0        13986                       (Unspecified)
system.ruby.network.data_traffic_distribution.n3.n1         9869                       (Unspecified)
system.ruby.network.data_traffic_distribution.n3.n2            0                       (Unspecified)
system.ruby.network.data_traffic_distribution.n3.n3            0                       (Unspecified)
system.ruby.network.data_traffic_distribution.n3.n4            0                       (Unspecified)
system.ruby.network.data_traffic_distribution.n3.n5            0                       (Unspecified)
system.ruby.network.data_traffic_distribution.n3.n6            0                       (Unspecified)
system.ruby.network.data_traffic_distribution.n4.n0         9718                       (Unspecified)
system.ruby.network.data_traffic_distribution.n4.n1        14118                       (Unspecified)
system.ruby.network.data_traffic_distribution.n4.n2            0                       (Unspecified)
system.ruby.network.data_traffic_distribution.n4.n3            0                       (Unspecified)
system.ruby.network.data_traffic_distribution.n4.n4            0                       (Unspecified)
system.ruby.network.data_traffic_distribution.n4.n5            0                       (Unspecified)
system.ruby.network.data_traffic_distribution.n4.n6            0                       (Unspecified)
system.ruby.network.data_traffic_distribution.n5.n0        13924                       (Unspecified)
system.ruby.network.data_traffic_distribution.n5.n1         9757                       (Unspecified)
system.ruby.network.data_traffic_distribution.n5.n2            0                       (Unspecified)
system.ruby.network.data_traffic_distribution.n5.n3            0                       (Unspecified)
system.ruby.network.data_traffic_distribution.n5.n4            0                       (Unspecified)
system.ruby.network.data_traffic_distribution.n5.n5            0                       (Unspecified)
system.ruby.network.data_traffic_distribution.n5.n6            0                       (Unspecified)
system.ruby.network.data_traffic_distribution.n6.n0         9752                       (Unspecified)
system.ruby.network.data_traffic_distribution.n6.n1        14484                       (Unspecified)
system.ruby.network.data_traffic_distribution.n6.n2            0                       (Unspecified)
system.ruby.network.data_traffic_distribution.n6.n3            0                       (Unspecified)
system.ruby.network.data_traffic_distribution.n6.n4            0                       (Unspecified)
system.ruby.network.data_traffic_distribution.n6.n5            0                       (Unspecified)
system.ruby.network.data_traffic_distribution.n6.n6            0                       (Unspecified)
system.ruby.network.ext_in_link_utilization       519003                       (Unspecified)
system.ruby.network.ext_out_link_utilization       519003                       (Unspecified)
system.ruby.network.flit_network_latency |   532837000                       |   999531500                       |   153128000                       (Unspecified)
system.ruby.network.flit_queueing_latency |   205294000                       |   175502000                       |    32871000                       (Unspecified)
system.ruby.network.flits_injected       |      177187     34.14%     34.14% |      276074     53.19%     87.33% |       65742     12.67%    100.00% (Unspecified)
system.ruby.network.flits_injected::total       519003                       (Unspecified)
system.ruby.network.flits_received       |      177187     34.14%     34.14% |      276074     53.19%     87.33% |       65742     12.67%    100.00% (Unspecified)
system.ruby.network.flits_received::total       519003                       (Unspecified)
system.ruby.network.int_link_utilization       749014                       (Unspecified)
system.ruby.network.packet_network_latency |   532837000                       |   999531500                       |   153128000                       (Unspecified)
system.ruby.network.packet_queueing_latency |   205294000                       |   175502000                       |    32871000                       (Unspecified)
system.ruby.network.packets_injected     |      177187     34.14%     34.14% |      276074     53.19%     87.33% |       65742     12.67%    100.00% (Unspecified)
system.ruby.network.packets_injected::total       519003                       (Unspecified)
system.ruby.network.packets_received     |      177187     34.14%     34.14% |      276074     53.19%     87.33% |       65742     12.67%    100.00% (Unspecified)
system.ruby.network.packets_received::total       519003                       (Unspecified)
system.ruby.network.routers0.buffer_reads       353282                       (Unspecified)
system.ruby.network.routers0.buffer_writes       353282                       (Unspecified)
system.ruby.network.routers0.crossbar_activity       353282                       (Unspecified)
system.ruby.network.routers0.sw_input_arbiter_activity       354716                       (Unspecified)
system.ruby.network.routers0.sw_output_arbiter_activity       353282                       (Unspecified)
system.ruby.network.routers1.buffer_reads       407063                       (Unspecified)
system.ruby.network.routers1.buffer_writes       407063                       (Unspecified)
system.ruby.network.routers1.crossbar_activity       407063                       (Unspecified)
system.ruby.network.routers1.sw_input_arbiter_activity       409033                       (Unspecified)
system.ruby.network.routers1.sw_output_arbiter_activity       407063                       (Unspecified)
system.ruby.network.routers2.buffer_reads       202058                       (Unspecified)
system.ruby.network.routers2.buffer_writes       202058                       (Unspecified)
system.ruby.network.routers2.crossbar_activity       202058                       (Unspecified)
system.ruby.network.routers2.sw_input_arbiter_activity       202464                       (Unspecified)
system.ruby.network.routers2.sw_output_arbiter_activity       202058                       (Unspecified)
system.ruby.network.routers3.buffer_reads        47710                       (Unspecified)
system.ruby.network.routers3.buffer_writes        47710                       (Unspecified)
system.ruby.network.routers3.crossbar_activity        47710                       (Unspecified)
system.ruby.network.routers3.sw_input_arbiter_activity        47710                       (Unspecified)
system.ruby.network.routers3.sw_output_arbiter_activity        47710                       (Unspecified)
system.ruby.network.routers4.buffer_reads        47672                       (Unspecified)
system.ruby.network.routers4.buffer_writes        47672                       (Unspecified)
system.ruby.network.routers4.crossbar_activity        47672                       (Unspecified)
system.ruby.network.routers4.sw_input_arbiter_activity        47672                       (Unspecified)
system.ruby.network.routers4.sw_output_arbiter_activity        47672                       (Unspecified)
system.ruby.network.routers5.buffer_reads        47362                       (Unspecified)
system.ruby.network.routers5.buffer_writes        47362                       (Unspecified)
system.ruby.network.routers5.crossbar_activity        47362                       (Unspecified)
system.ruby.network.routers5.sw_input_arbiter_activity        47362                       (Unspecified)
system.ruby.network.routers5.sw_output_arbiter_activity        47362                       (Unspecified)
system.ruby.network.routers6.buffer_reads        48472                       (Unspecified)
system.ruby.network.routers6.buffer_writes        48472                       (Unspecified)
system.ruby.network.routers6.crossbar_activity        48472                       (Unspecified)
system.ruby.network.routers6.sw_input_arbiter_activity        48472                       (Unspecified)
system.ruby.network.routers6.sw_output_arbiter_activity        48472                       (Unspecified)

---------- End Simulation Statistics   ----------
